WIDTH=32;
DEPTH=4096;

ADDRESS_RADIX=HEX;
DATA_RADIX=HEX;

CONTENT BEGIN
    00 : 00000293;
    01 : 10000413;
    02 : 20000493;
    03 : 01100513;
    04 : 00A40023;
    05 : 02200513;
    06 : 00A400A3;
    07 : FFF00513;
    08 : 00A40123;
    09 : F8000513;
    0A : 00A401A3;
    0B : 01200513;
    0C : 00851513;
    0D : 03456513;
    0E : 00A41223;
    0F : 12345537;
    10 : 67850513;
    11 : 00A42423;
    12 : 00500593;
    13 : 00700613;
    14 : 00C586B3;
    15 : 00D2A023;
    16 : 00428293;
    17 : 40B60733;
    18 : 00E2A023;
    19 : 00428293;
    1A : FFF00793;
    1B : 00F2A023;
    1C : 00428293;
    1D : 12345837;
    1E : 0102A023;
    1F : 00428293;
    20 : 00001897;
    21 : 00001917;
    22 : 411909B3;
    23 : 0132A023;
    24 : 00428293;
    25 : 0F000A13;
    26 : 00FA6A13;
    27 : 0F000A93;
    28 : 015A4B33;
    29 : 0162A023;
    2A : 00428293;
    2B : 015A6BB3;
    2C : 0172A023;
    2D : 00428293;
    2E : 015A7C33;
    2F : 0182A023;
    30 : 00428293;
    31 : 00FA4C93;
    32 : 0192A023;
    33 : 00428293;
    34 : 00FA6D13;
    35 : 01A2A023;
    36 : 00428293;
    37 : 00FA7D93;
    38 : 01B2A023;
    39 : 00428293;
    3A : FFB00E13;
    3B : 00300E93;
    3C : 01DE2F33;
    3D : 01E2A023;
    3E : 00428293;
    3F : 01DE3FB3;
    40 : 01F2A023;
    41 : 00428293;
    42 : 00300513;
    43 : 00A52513;
    44 : 00A2A023;
    45 : 00428293;
    46 : 00300593;
    47 : 0015B593;
    48 : 00B2A023;
    49 : 00428293;
    4A : 00100613;
    4B : 00400693;
    4C : 00D61733;
    4D : 00E2A023;
    4E : 00428293;
    4F : 01000793;
    50 : 00200813;
    51 : 0107D8B3;
    52 : 0112A023;
    53 : 00428293;
    54 : FF000913;
    55 : 00200993;
    56 : 41395A33;
    57 : 0142A023;
    58 : 00428293;
    59 : 00100A93;
    5A : 003A9B13;
    5B : 0162A023;
    5C : 00428293;
    5D : 02000B93;
    5E : 003BDC13;
    5F : 0182A023;
    60 : 00428293;
    61 : FE000C93;
    62 : 403CDD13;
    63 : 01A2A023;
    64 : 00428293;
    65 : 00842503;
    66 : 00A2A023;
    67 : 00428293;
    68 : 00441583;
    69 : 00B2A023;
    6A : 00428293;
    6B : 00445603;
    6C : 00C2A023;
    6D : 00428293;
    6E : 00240683;
    6F : 00D2A023;
    70 : 00428293;
    71 : 00244703;
    72 : 00E2A023;
    73 : 00428293;
    74 : 05500793;
    75 : 00F48023;
    76 : 00048803;
    77 : 0102A023;
    78 : 00428293;
    79 : 07F00893;
    7A : 00189893;
    7B : 01149123;
    7C : 00249903;
    7D : 0122A023;
    7E : 00428293;
    7F : 7F0009B7;
    80 : 0134A223;
    81 : 0044AA03;
    82 : 0142A023;
    83 : 00428293;
    84 : 00500513;
    85 : 00500593;
    86 : 00B50A63;
    87 : 00000613;
    88 : 00C2A023;
    89 : 00428293;
    8A : 0100006F;
    8B : 00100613;
    8C : 00C2A023;
    8D : 00428293;
    8E : 00500513;
    8F : 00600593;
    90 : 00B51A63;
    91 : 00000613;
    92 : 00C2A023;
    93 : 00428293;
    94 : 0100006F;
    95 : 00100613;
    96 : 00C2A023;
    97 : 00428293;
    98 : FFF00513;
    99 : 00100593;
    9A : 00B54A63;
    9B : 00000613;
    9C : 00C2A023;
    9D : 00428293;
    9E : 0100006F;
    9F : 00100613;
    A0 : 00C2A023;
    A1 : 00428293;
    A2 : 00300513;
    A3 : FFE00593;
    A4 : 00B55A63;
    A5 : 00000613;
    A6 : 00C2A023;
    A7 : 00428293;
    A8 : 0100006F;
    A9 : 00100613;
    AA : 00C2A023;
    AB : 00428293;
    AC : 00100513;
    AD : FFF00593;
    AE : 00B56A63;
    AF : 00000613;
    B0 : 00C2A023;
    B1 : 00428293;
    B2 : 0100006F;
    B3 : 00100613;
    B4 : 00C2A023;
    B5 : 00428293;
    B6 : FFF00513;
    B7 : 00100593;
    B8 : 00B57A63;
    B9 : 00000613;
    BA : 00C2A023;
    BB : 00428293;
    BC : 0100006F;
    BD : 00100613;
    BE : 00C2A023;
    BF : 00428293;
    C0 : 00000693;
    C1 : 014000EF;
    C2 : 00168693;
    C3 : 00D2A023;
    C4 : 00428293;
    C5 : 00C0006F;
    C6 : 00268693;
    C7 : FEDFF06F;
    C8 : 00000713;
    C9 : 014000EF;
    CA : 00270713;
    CB : 00E2A023;
    CC : 00428293;
    CD : 00C0006F;
    CE : 00170713;
    CF : 00008067;
    D0 : 00500013;
    D1 : 0002A023;
    D2 : 00428293;
    D3 : 0000006F;
    [D4..FFF] : 00000000; -- restante zerado até 4096 palavras
END;
